units(length='cm', time='s', quantity='mol', act_energy='kcal/mol')

ideal_gas(name='gas',
          elements="H C O N Ne Ar He Si S Cl",
          species="""Ar         He         Ne         N2         ethane(1)
                     C(3)       CH3(4)     C2H5(5)    H(6)       C2H4(8)
                     H2(10)     C2H3(13)   C3H7(14)   C#C(22)    C4H7(24)
                     C3H5(26)   C4H7(31)   C4H6(32)""",
          reactions='all',
          initial_state=state(temperature=300.0, pressure=OneAtm))

#-------------------------------------------------------------------------------
# Species data
#-------------------------------------------------------------------------------

species(name=u'Ar',
        atoms='Ar:1',
        thermo=(NASA([200.00, 1000.00],
                     [ 2.50000000E+00,  0.00000000E+00,  0.00000000E+00,
                       0.00000000E+00,  0.00000000E+00, -7.45375000E+02,
                       4.37967000E+00]),
                NASA([1000.00, 6000.00],
                     [ 2.50000000E+00,  0.00000000E+00,  0.00000000E+00,
                       0.00000000E+00,  0.00000000E+00, -7.45375000E+02,
                       4.37967000E+00])))

species(name=u'He',
        atoms='He:1',
        thermo=(NASA([200.00, 1000.00],
                     [ 2.50000000E+00,  0.00000000E+00,  0.00000000E+00,
                       0.00000000E+00,  0.00000000E+00, -7.45375000E+02,
                       9.28724000E-01]),
                NASA([1000.00, 6000.00],
                     [ 2.50000000E+00,  0.00000000E+00,  0.00000000E+00,
                       0.00000000E+00,  0.00000000E+00, -7.45375000E+02,
                       9.28724000E-01])))

species(name=u'Ne',
        atoms='Ne:1',
        thermo=(NASA([200.00, 1000.00],
                     [ 2.50000000E+00,  0.00000000E+00,  0.00000000E+00,
                       0.00000000E+00,  0.00000000E+00, -7.45375000E+02,
                       3.35532000E+00]),
                NASA([1000.00, 6000.00],
                     [ 2.50000000E+00,  0.00000000E+00,  0.00000000E+00,
                       0.00000000E+00,  0.00000000E+00, -7.45375000E+02,
                       3.35532000E+00])))

species(name=u'N2',
        atoms='N:2',
        thermo=(NASA([200.00, 1000.00],
                     [ 3.53101000E+00, -1.23661000E-04, -5.02999000E-07,
                       2.43531000E-09, -1.40881000E-12, -1.04698000E+03,
                       2.96747000E+00]),
                NASA([1000.00, 6000.00],
                     [ 2.95258000E+00,  1.39690000E-03, -4.92632000E-07,
                       7.86010000E-11, -4.60755000E-15, -9.23949000E+02,
                       5.87189000E+00])))

species(name=u'ethane(1)',
        atoms='H:6 C:2',
        thermo=(NASA([100.00, 954.51],
                     [ 3.78034566E+00, -3.24275988E-03,  5.52385343E-05,
                      -6.38587657E-08,  2.28639958E-11, -1.16203413E+04,
                       5.21029769E+00]),
                NASA([954.51, 5000.00],
                     [ 4.58979582E+00,  1.41508358E-02, -4.75965748E-06,
                       8.60302829E-10, -6.21723782E-14, -1.27217509E+04,
                      -3.61719202E+00])))

species(name=u'C(3)',
        atoms='H:4 C:1',
        thermo=(NASA([100.00, 1084.12],
                     [ 4.20541718E+00, -5.35559592E-03,  2.51124016E-05,
                      -2.13763767E-08,  5.97527643E-12, -1.01619434E+04,
                      -9.21286260E-01]),
                NASA([1084.12, 5000.00],
                     [ 9.08254565E-01,  1.14541042E-02, -4.57174864E-06,
                       8.29194079E-10, -5.66316867E-14, -9.71996955E+03,
                       1.39931576E+01])))

species(name=u'CH3(4)',
        atoms='H:3 C:1',
        thermo=(NASA([100.00, 1337.62],
                     [ 3.91546881E+00,  1.84153071E-03,  3.48745424E-06,
                      -3.32751449E-09,  8.49969833E-13,  1.62856393E+04,
                       3.51737061E-01]),
                NASA([1337.62, 5000.00],
                     [ 3.54143994E+00,  4.76789505E-03, -1.82149844E-06,
                       3.28879736E-10, -2.22548085E-14,  1.62239664E+04,
                       1.66045063E+00])))

species(name=u'C2H5(5)',
        atoms='H:5 C:2',
        thermo=(NASA([100.00, 900.31],
                     [ 3.82184574E+00, -3.43372776E-03,  5.09261994E-05,
                      -6.20218322E-08,  2.37076486E-11,  1.30660125E+04,
                       7.61639909E+00]),
                NASA([900.31, 5000.00],
                     [ 5.15618316E+00,  9.43127056E-03, -1.81948649E-06,
                       2.21202144E-10, -1.43486654E-14,  1.20640929E+04,
                      -2.91084322E+00])))

species(name=u'H(6)',
        atoms='H:1',
        thermo=(NASA([100.00, 1976.95],
                     [ 2.50000000E+00,  3.26451590E-15, -6.55661022E-18,
                       4.48141418E-21, -9.61104819E-25,  2.54742178E+04,
                      -4.44972896E-01]),
                NASA([1976.95, 5000.00],
                     [ 2.50000000E+00,  4.71895095E-14, -2.45802748E-17,
                       5.39877243E-21, -4.24479825E-25,  2.54742178E+04,
                      -4.44972896E-01])))

species(name=u'C2H4(8)',
        atoms='H:4 C:2',
        thermo=(NASA([100.00, 940.44],
                     [ 3.97976129E+00, -7.57580694E-03,  5.52980928E-05,
                      -6.36232251E-08,  2.31771962E-11,  5.07746014E+03,
                       4.04616768E+00]),
                NASA([940.44, 5000.00],
                     [ 5.20294028E+00,  7.82451761E-03, -2.12688841E-06,
                       3.79703513E-10, -2.94681544E-14,  3.93630326E+03,
                      -6.62380853E+00])))

species(name=u'H2(10)',
        atoms='H:2',
        thermo=(NASA([100.00, 1959.06],
                     [ 3.43536356E+00,  2.12715218E-04, -2.78636076E-07,
                       3.40275821E-10, -7.76053428E-14, -1.03135981E+03,
                      -3.90841517E+00]),
                NASA([1959.06, 5000.00],
                     [ 2.78822439E+00,  5.87564861E-04,  1.59046035E-07,
                      -5.52810512E-11,  4.34363089E-15, -5.96178821E+02,
                       1.12385527E-01])))

species(name=u'C2H3(13)',
        atoms='H:3 C:2',
        thermo=(NASA([100.00, 931.96],
                     [ 3.90670525E+00, -4.06240795E-03,  3.86779939E-05,
                      -4.62976267E-08,  1.72900322E-11,  3.47971783E+04,
                       6.09789045E+00]),
                NASA([931.96, 5000.00],
                     [ 5.44796616E+00,  4.98356024E-03, -1.08820708E-06,
                       1.79837149E-10, -1.45096151E-14,  3.38297744E+04,
                      -4.87808593E+00])))

species(name=u'C3H7(14)',
        atoms='H:7 C:3',
        thermo=(NASA([100.00, 995.41],
                     [ 3.09192231E+00,  1.32171360E-02,  2.75851537E-05,
                      -3.90854062E-08,  1.43315549E-11,  1.02284114E+04,
                       1.24057541E+01]),
                NASA([995.41, 5000.00],
                     [ 5.69427245E+00,  1.96034037E-02, -7.42053307E-06,
                       1.35883820E-09, -9.56222054E-14,  8.87586396E+03,
                      -4.32868864E+00])))

species(name=u'C#C(22)',
        atoms='H:2 C:2',
        thermo=(NASA([100.00, 888.63],
                     [ 3.03574055E+00,  7.71247648E-03,  2.53459893E-06,
                      -1.08128379E-08,  5.50734592E-12,  2.58526446E+04,
                       4.54463702E+00]),
                NASA([888.63, 5000.00],
                     [ 5.76206225E+00,  2.37155751E-03, -1.49564722E-07,
                      -2.19197993E-11,  2.21815692E-15,  2.50944432E+04,
                      -9.82618064E+00])))

species(name=u'C4H7(24)',
        atoms='H:7 C:4',
        thermo=(NASA([100.00, 1000.95],
                     [ 2.68060313E+00,  2.10827044E-02,  2.02118569E-05,
                      -3.64237456E-08,  1.41442415E-11,  2.27528016E+04,
                       1.66008955E+01]),
                NASA([1000.95, 5000.00],
                     [ 7.59476477E+00,  2.06425182E-02, -7.89785919E-06,
                       1.45965071E-09, -1.03414017E-13,  2.08073205E+04,
                      -1.19157711E+01])))

species(name=u'C3H5(26)',
        atoms='H:5 C:3',
        thermo=(NASA([100.00, 997.88],
                     [ 3.23408142E+00,  1.18208307E-02,  1.70305785E-05,
                      -2.64366483E-08,  9.91219227E-12,  3.04873065E+04,
                       1.03182787E+01]),
                NASA([997.88, 5000.00],
                     [ 5.66471181E+00,  1.44326086E-02, -5.46737883E-06,
                       1.00157880E-09, -7.04859613E-14,  2.93870851E+04,
                      -4.48512660E+00])))

species(name=u'C4H7(31)',
        atoms='H:7 C:4',
        thermo=(NASA([100.00, 926.05],
                     [ 3.04745490E+00,  5.45460429E-03,  7.53349662E-05,
                      -1.02232359E-07,  4.01854345E-11,  2.58269350E+04,
                       1.40787904E+01]),
                NASA([926.05, 5000.00],
                     [ 1.02343762E+01,  1.41136286E-02, -2.99952628E-06,
                       4.56685746E-10, -3.49854288E-14,  2.27934581E+04,
                      -2.92334269E+01])))

species(name=u'C4H6(32)',
        atoms='H:6 C:4',
        thermo=(NASA([100.00, 940.94],
                     [ 2.68209366E+00,  1.69317722E-02,  3.73667337E-05,
                      -6.26505862E-08,  2.59158191E-11,  1.13546000E+04,
                       1.20322731E+01]),
                NASA([940.94, 5000.00],
                     [ 1.10822147E+01,  1.17737589E-02, -3.11427836E-06,
                       5.37777712E-10, -4.10649781E-14,  8.42133349E+03,
                      -3.51688647E+01])))

#-------------------------------------------------------------------------------
# Reaction data
#-------------------------------------------------------------------------------

# Reaction 1
reaction('CH3(4) + CH3(4) <=> ethane(1)', [8.260000e+17, -1.4, 1.0])

# Reaction 2
reaction('ethane(1) + CH3(4) <=> C(3) + C2H5(5)', [4.488000e-05, 4.99, 8.0])

# Reaction 3
reaction('C2H5(5) + H(6) <=> ethane(1)', [1.000000e+14, 0.0, 0.0])

# Reaction 4
reaction('CH3(4) + H(6) <=> C(3)', [1.930000e+14, 0.0, 0.27])

# Reaction 5
reaction('H(6) + C2H4(8) <=> C2H5(5)', [4.620000e+08, 1.64, 1.01])

# Reaction 6
reaction('CH3(4) + C2H5(5) <=> C(3) + C2H4(8)', [6.570000e+14, -0.68, 0.0])

# Reaction 7
reaction('C2H5(5) + C2H5(5) <=> ethane(1) + C2H4(8)', [6.900000e+13, -0.35, 0.0])

# Reaction 8
reaction('ethane(1) + H(6) <=> C2H5(5) + H2(10)', [6.180000e+03, 3.24, 7.1])

# Reaction 9
reaction('C2H5(5) + H(6) <=> H2(10) + C2H4(8)', [2.166000e+13, 0.0, 0.0])

# Reaction 10
reaction('C(3) + H(6) <=> CH3(4) + H2(10)', [8.760000e-01, 4.34, 8.2])

# Reaction 11
reaction('H(6) + H(6) <=> H2(10)', [1.090000e+11, 0.0, 1.5])

# Reaction 12
reaction('CH3(4) + C2H4(8) <=> C3H7(14)', [4.180000e+04, 2.41, 5.63])

# Reaction 13
reaction('H(6) + C2H3(13) <=> C2H4(8)', [1.210000e+14, 0.0, 0.0])

# Reaction 14
reaction('C(3) + C2H3(13) <=> CH3(4) + C2H4(8)', [2.236000e-02, 4.34, 5.7])

# Reaction 15
reaction('ethane(1) + C2H3(13) <=> C2H5(5) + C2H4(8)', [1.080000e-03, 4.55, 3.5])

# Reaction 16
reaction('C2H3(13) + H2(10) <=> H(6) + C2H4(8)', [9.460000e+03, 2.56, 5.03])

# Reaction 17
reaction('C2H5(5) + C2H3(13) <=> C2H4(8) + C2H4(8)', [4.560000e+14, -0.7, 0.0])

# Reaction 18
reaction('H(6) + C#C(22) <=> C2H3(13)', [1.030000e+09, 1.64, 2.11])

# Reaction 19
reaction('C2H5(5) + C2H3(13) <=> ethane(1) + C#C(22)', [1.932000e+06, 1.87, -1.11])

# Reaction 20
reaction('CH3(4) + C2H3(13) <=> C(3) + C#C(22)', [2.277000e+06, 1.87, -1.11])

# Reaction 21
reaction('C2H3(13) + C2H3(13) <=> C2H4(8) + C#C(22)', [4.670000e+09, 0.969, -3.686])

# Reaction 22
reaction('H(6) + C2H3(13) <=> H2(10) + C#C(22)', [1.358000e+09, 1.5, -0.89])

# Reaction 23
reaction('C2H3(13) + C2H4(8) <=> C4H7(24)', [2.860000e+04, 2.41, 1.8])

# Reaction 24
reaction('C4H7(24) <=> C4H7(31)', [3.840000e+10, 0.21, 8.78])

# Reaction 25
reaction('CH3(4) + C#C(22) <=> C3H5(26)', [1.338000e+05, 2.41, 6.77])

# Reaction 26
reaction('H(6) + C4H6(32) <=> C4H7(24)', [3.240000e+08, 1.64, 2.4])

# Reaction 27
reaction('C2H3(13) + C2H3(13) <=> C4H6(32)', [7.230000e+13, 0.0, 0.0])

# Reaction 28
reaction('C2H5(5) + C4H7(24) <=> ethane(1) + C4H6(32)', [2.009000e+12, 0.0, -0.043])

# Reaction 29
reaction('CH3(4) + C4H7(24) <=> C(3) + C4H6(32)', [2.300000e+13, -0.32, 0.0])

# Reaction 30
reaction('C2H3(13) + C4H7(24) <=> C2H4(8) + C4H6(32)', [2.420000e+12, 0.0, 0.0])

# Reaction 31
reaction('H(6) + C4H7(24) <=> H2(10) + C4H6(32)', [7.240000e+12, 0.0, 0.0])
